Version 4
SHEET 1 880 680
WIRE 352 0 64 0
WIRE 64 64 64 0
WIRE 352 64 352 0
WIRE 64 240 64 144
WIRE 352 240 352 144
WIRE 352 240 64 240
WIRE 64 272 64 240
FLAG 64 272 0
SYMBOL voltage 64 160 M180
WINDOW 0 24 96 Left 2
WINDOW 3 24 16 Left 2
WINDOW 123 0 0 Left 0
WINDOW 39 0 0 Left 0
SYMATTR InstName V1
SYMATTR Value SINE(0 5 1k 0)
SYMBOL res 336 48 R0
SYMATTR InstName R1
SYMATTR Value 10
TEXT 0 -160 Left 2 !.tran 0 2m 0
