Version 4
SHEET 1 3736 680
WIRE -1008 -640 -1008 -688
WIRE -800 -640 -800 -688
WIRE -1008 -544 -1008 -560
WIRE -1008 -544 -1104 -544
WIRE -800 -544 -800 -560
WIRE -800 -544 -896 -544
WIRE -1008 -512 -1008 -544
WIRE -800 -512 -800 -544
WIRE -1104 -464 -1104 -544
WIRE -896 -464 -896 -544
WIRE -1008 -368 -1008 -432
WIRE -800 -368 -800 -432
WIRE 1760 -144 1552 -144
WIRE 1920 -144 1840 -144
WIRE 688 -112 560 -112
WIRE 848 -112 768 -112
WIRE 1024 -112 928 -112
WIRE 3072 -112 2768 -112
WIRE 1760 -48 1632 -48
WIRE 1920 -48 1920 -144
WIRE 1920 -48 1824 -48
WIRE 3376 -48 3296 -48
WIRE 3648 -48 3376 -48
WIRE -336 0 -624 0
WIRE 3072 16 2912 16
WIRE 464 32 352 32
WIRE 560 32 560 -112
WIRE 560 32 544 32
WIRE 640 32 608 32
WIRE 2768 32 2768 -112
WIRE -80 48 -176 48
WIRE 48 48 -80 48
WIRE 1440 64 1344 64
WIRE 1552 64 1552 -144
WIRE 1552 64 1520 64
WIRE -336 80 -368 80
WIRE 1024 80 1024 -112
WIRE 1024 80 800 80
WIRE 1104 80 1024 80
WIRE 1728 80 1696 80
WIRE 3184 80 3184 16
WIRE -624 96 -624 0
WIRE 560 112 560 32
WIRE 640 112 560 112
WIRE 48 128 48 48
WIRE 352 128 352 32
WIRE 1920 128 1920 -48
WIRE 1920 128 1888 128
WIRE 2192 128 1920 128
WIRE 3152 128 3152 32
WIRE 3152 128 3072 128
WIRE -368 160 -368 80
WIRE -80 160 -80 48
WIRE -80 160 -368 160
WIRE 1104 160 1104 80
WIRE 1552 160 1552 64
WIRE 1632 160 1632 -48
WIRE 1728 160 1632 160
WIRE 1344 176 1344 64
WIRE 2768 176 2768 112
WIRE 1552 192 1552 160
WIRE 2192 208 2192 128
WIRE 2912 224 2912 16
WIRE 3136 224 2912 224
WIRE 3376 224 3376 -48
WIRE 3376 224 3216 224
WIRE -624 240 -624 176
WIRE 3648 240 3648 -48
WIRE 48 256 48 208
WIRE 2912 256 2912 224
WIRE 352 272 352 208
WIRE 608 272 608 32
WIRE 1104 288 1104 240
WIRE 1344 320 1344 256
WIRE 1552 320 1552 256
WIRE 1696 320 1696 80
WIRE 2192 336 2192 288
WIRE 2912 368 2912 336
WIRE 3648 368 3648 320
FLAG -624 240 0
FLAG -800 -688 +Vin
FLAG -896 -464 0
FLAG -800 -368 -Vin
FLAG -256 0 +Vin
FLAG -256 96 -Vin
FLAG 48 256 0
FLAG 352 272 0
FLAG 720 32 +Vin
FLAG 720 128 -Vin
FLAG 1104 288 0
FLAG 608 272 0
FLAG 1344 320 0
FLAG 1808 80 +Vin
FLAG 1808 176 -Vin
FLAG 2192 336 0
FLAG 1696 320 0
FLAG 1552 320 0
FLAG 3216 -96 +Vin_P
FLAG 3216 0 -Vin_P
FLAG 3184 80 0
FLAG 2912 368 0
FLAG 2992 128 -Vin
FLAG 2768 176 0
FLAG 3648 368 0
FLAG -1008 -688 +Vin_P
FLAG -1104 -464 0
FLAG -1008 -368 -Vin_P
SYMBOL res 560 16 R90
WINDOW 0 0 56 VBottom 2
WINDOW 3 32 56 VTop 2
SYMATTR InstName R1
SYMATTR Value 2k
SYMBOL voltage -624 80 R0
WINDOW 3 -352 84 Left 2
WINDOW 123 24 44 Left 2
WINDOW 39 0 0 Left 0
SYMATTR Value SINE(0 1.414 1000 0 0 0 0)
SYMATTR InstName V1
SYMBOL voltage -800 -656 R0
WINDOW 0 37 43 Left 2
WINDOW 3 35 18 Left 2
WINDOW 123 0 0 Left 0
WINDOW 39 -101 12 Left 2
SYMATTR InstName V2
SYMATTR Value 12
SYMATTR SpiceLine Rser=0
SYMBOL voltage -800 -528 R0
WINDOW 0 36 51 Left 2
WINDOW 3 33 26 Left 2
WINDOW 123 0 0 Left 0
WINDOW 39 -88 8 Left 2
SYMATTR InstName V3
SYMATTR Value 12
SYMATTR SpiceLine Rser=0
SYMBOL res 32 112 R0
SYMATTR InstName R2
SYMATTR Value 1Meg
SYMBOL voltage 352 112 R0
WINDOW 3 -53 -125 VRight 2
WINDOW 123 0 0 Left 0
WINDOW 39 0 0 Left 0
SYMATTR Value SINE(0 1.414 1000 0 0 0 0)
SYMATTR InstName V4
SYMBOL res 1088 144 R0
SYMATTR InstName R4
SYMATTR Value 1Meg
SYMBOL res 784 -128 R90
WINDOW 0 0 56 VBottom 2
WINDOW 3 32 56 VTop 2
SYMATTR InstName R5
SYMATTR Value 0.5k
SYMBOL res 944 -128 R90
WINDOW 0 0 56 VBottom 2
WINDOW 3 32 56 VTop 2
SYMATTR InstName R6
SYMATTR Value 5k
SYMBOL res 1648 144 R90
WINDOW 0 0 56 VBottom 2
WINDOW 3 32 56 VTop 2
SYMATTR InstName R3
SYMATTR Value 3.3k
SYMBOL voltage 1344 160 R0
WINDOW 3 -44 -99 VRight 2
WINDOW 123 24 44 Left 2
WINDOW 39 0 0 Left 0
SYMATTR Value SINE(0 {1.414*5} 1000 0 0 0 0)
SYMATTR Value2 AC {1.414*5}
SYMATTR InstName V5
SYMBOL res 2176 192 R0
SYMATTR InstName R7
SYMATTR Value 1Meg
SYMBOL res 1856 -160 R90
WINDOW 0 0 56 VBottom 2
WINDOW 3 32 56 VTop 2
SYMATTR InstName R8
SYMATTR Value 4.7k
SYMBOL cap 1824 -64 R90
WINDOW 0 0 32 VBottom 2
WINDOW 3 32 32 VTop 2
SYMATTR InstName C1
SYMATTR Value 1n
SYMBOL cap 1536 192 R0
WINDOW 0 -26 54 Left 2
SYMATTR InstName C2
SYMATTR Value 2.7n
SYMBOL res 1536 48 R90
WINDOW 0 0 56 VBottom 2
WINDOW 3 32 56 VTop 2
SYMATTR InstName R9
SYMATTR Value 4.7k
SYMBOL res 3232 208 R90
WINDOW 0 0 56 VBottom 2
WINDOW 3 32 56 VTop 2
SYMATTR InstName R10
SYMATTR Value 2k
SYMBOL res 2896 240 R0
SYMATTR InstName R11
SYMATTR Value 1k
SYMBOL res 3088 112 R90
WINDOW 0 0 56 VBottom 2
WINDOW 3 32 56 VTop 2
SYMATTR InstName R12
SYMATTR Value 100
SYMBOL voltage 2768 16 R0
WINDOW 3 -44 -99 VRight 2
WINDOW 123 29 97 VRight 2
WINDOW 39 0 0 Left 0
SYMATTR Value SINE(0 {1.414*5} 1000 0 0 0 0)
SYMATTR InstName V6
SYMBOL res 3632 224 R0
SYMATTR InstName R13
SYMATTR Value 4
SYMBOL voltage -1008 -656 R0
WINDOW 0 37 43 Left 2
WINDOW 3 35 18 Left 2
WINDOW 123 0 0 Left 0
WINDOW 39 -101 12 Left 2
SYMATTR InstName V7
SYMATTR Value 36
SYMATTR SpiceLine Rser=0
SYMBOL voltage -1008 -528 R0
WINDOW 0 36 51 Left 2
WINDOW 3 33 26 Left 2
WINDOW 123 0 0 Left 0
WINDOW 39 -88 8 Left 2
SYMATTR InstName V8
SYMATTR Value 36
SYMATTR SpiceLine Rser=0
SYMBOL OPA132 -288 48 R0
SYMATTR InstName U1
SYMBOL OPA132 688 80 R0
SYMATTR InstName U5
SYMBOL OPA132 1776 128 R0
SYMATTR InstName U6
SYMBOL LM3886 3184 -32 R0
SYMATTR InstName U7
TEXT -496 -120 Left 2 ;Bufor
TEXT -920 -776 Left 2 ;Power supplay
TEXT -592 -736 Left 2 ;Time domain simulation
TEXT 496 -216 Left 2 ;Pre-amp + audio level adjust
TEXT 1592 -232 Left 2 ;Low-pass filter Sallen-Key
TEXT -592 -640 Left 2 ;Frequency domain simulation
TEXT -576 -616 Left 2 !.ac dec 10 1 100k
TEXT -568 -704 Left 2 ;.tran 0 {100*(1/1000)} {98*(1/1000)}
TEXT -1224 -784 Left 2 ;Power output supplay
TEXT 2776 -264 Left 2 ;Power output
TEXT -568 -672 Left 2 ;.dc
